Version 4
SHEET 1 1108 680
WIRE 272 -256 272 -288
WIRE 272 -256 160 -256
WIRE 384 -256 272 -256
WIRE 160 -208 160 -256
WIRE -176 -176 -176 -224
WIRE -16 -176 -16 -224
WIRE 160 -64 160 -128
WIRE 384 -64 384 -256
WIRE -176 -48 -176 -96
WIRE -16 -48 -16 -96
WIRE 160 64 160 16
WIRE 720 64 160 64
WIRE 912 80 784 80
WIRE 384 96 384 16
WIRE 720 96 384 96
WIRE 160 112 160 64
WIRE 384 112 384 96
WIRE 112 176 -144 176
WIRE 496 176 432 176
WIRE 576 176 496 176
WIRE 912 176 912 80
WIRE 912 176 656 176
WIRE 496 224 496 176
WIRE -144 240 -144 176
WIRE 160 272 160 208
WIRE 272 272 160 272
WIRE 384 272 384 208
WIRE 384 272 272 272
WIRE 272 336 272 272
WIRE 496 352 496 304
WIRE -144 368 -144 320
WIRE 272 480 272 416
FLAG -176 -224 15V
FLAG -16 -224 -15V
FLAG -16 -48 0
FLAG -176 -48 0
FLAG 272 -288 15V
FLAG 272 480 -15V
FLAG -144 368 0
FLAG 752 48 15V
FLAG 752 112 -15V
FLAG 496 352 0
SYMBOL njf 112 112 R0
SYMATTR InstName J1
SYMATTR Value LSK389B
SYMBOL voltage -176 -192 R0
WINDOW 123 0 0 Left 0
WINDOW 39 0 0 Left 0
SYMATTR InstName V1
SYMATTR Value 15
SYMBOL voltage -16 -192 R0
WINDOW 123 0 0 Left 0
WINDOW 39 0 0 Left 0
SYMATTR InstName V2
SYMATTR Value -15
SYMBOL voltage -144 224 R0
WINDOW 123 0 0 Left 0
WINDOW 39 0 0 Left 0
SYMATTR InstName V3
SYMATTR Value SINE(0.01m 0.01m 100k)
SYMBOL res 144 -80 R0
SYMATTR InstName R2
SYMATTR Value 2k
SYMBOL njf 432 112 M0
SYMATTR InstName J2
SYMATTR Value LSK389B
SYMBOL res 400 -80 M0
SYMATTR InstName R3
SYMATTR Value 2k
SYMBOL res 672 160 R90
WINDOW 0 0 56 VBottom 2
WINDOW 3 32 56 VTop 2
SYMATTR InstName R4
SYMATTR Value 990
SYMBOL res 480 208 R0
SYMATTR InstName R5
SYMATTR Value 10
SYMBOL current 272 336 R0
WINDOW 123 0 0 Left 0
WINDOW 39 0 0 Left 0
SYMATTR InstName I1
SYMATTR Value 10m
SYMBOL res 176 -224 M0
SYMATTR InstName R1
SYMATTR Value 0.1
SYMBOL OpAmps\\LT1886 752 16 R0
SYMATTR InstName U2
TEXT -1192 -224 Left 2 !.lib Z:\\home\\ostoja\\Elektronika\\LNWBA\\LSK389B.lib
TEXT -210 486 Left 2 !.tran 1m
TEXT -1192 -200 Left 2 !.lib Z:\\home\\ostoja\\Elektronika\\LNWBA\\lm7171.lib
TEXT -1192 -176 Left 2 !.lib Z:\\home\\ostoja\\Elektronika\\LNWBA\\LM6171A.MOD
TEXT 656 -208 Left 2 !.param Trim = 100
