Version 4
SHEET 1 2516 804
WIRE 896 -592 864 -592
WIRE 928 -592 896 -592
WIRE 1104 -592 1072 -592
WIRE 1136 -592 1104 -592
WIRE 1264 -592 1232 -592
WIRE 1296 -592 1264 -592
WIRE 864 -544 864 -592
WIRE 1072 -544 1072 -592
WIRE 1232 -544 1232 -592
WIRE 864 -416 864 -464
WIRE 1072 -416 1072 -464
WIRE 1232 -416 1232 -464
WIRE 896 -368 864 -368
WIRE 928 -368 896 -368
WIRE 864 -320 864 -368
WIRE 272 -256 272 -288
WIRE 272 -256 160 -256
WIRE 384 -256 272 -256
WIRE 864 -192 864 -240
WIRE 1568 -160 1536 -160
WIRE 1712 -160 1648 -160
WIRE 1744 -160 1712 -160
WIRE 1888 -160 1824 -160
WIRE 880 -128 752 -128
WIRE 880 -96 880 -128
WIRE 160 -64 160 -256
WIRE 384 -64 384 -256
WIRE 1280 -64 1216 -64
WIRE 1312 -64 1280 -64
WIRE 1456 -64 1392 -64
WIRE 880 32 880 -16
WIRE 1712 32 1712 -160
WIRE 1776 32 1712 32
WIRE 752 48 752 -128
WIRE 1280 48 1280 -64
WIRE 1344 48 1280 48
WIRE 1888 48 1888 -160
WIRE 1888 48 1840 48
WIRE 160 64 160 16
WIRE 720 64 160 64
WIRE 1456 64 1456 -64
WIRE 1456 64 1408 64
WIRE 1776 64 1456 64
WIRE 912 80 784 80
WIRE 960 80 912 80
WIRE 1088 80 1024 80
WIRE 1344 80 1088 80
WIRE 384 96 384 16
WIRE 720 96 384 96
WIRE 1712 96 1712 32
WIRE 160 112 160 64
WIRE 384 112 384 96
WIRE 1280 112 1280 48
WIRE 1456 112 1456 64
WIRE 1088 128 1088 80
WIRE 752 144 752 112
WIRE 832 144 752 144
WIRE -240 176 -304 176
WIRE -96 176 -160 176
WIRE 32 176 -32 176
WIRE 112 176 32 176
WIRE 496 176 432 176
WIRE 608 176 496 176
WIRE 672 176 608 176
WIRE 784 176 752 176
WIRE 912 176 912 80
WIRE 912 176 784 176
WIRE -304 224 -304 176
WIRE 32 224 32 176
WIRE 496 224 496 176
WIRE 1712 224 1712 176
WIRE 1280 240 1280 192
WIRE 1456 240 1456 192
WIRE 832 256 832 144
WIRE 1088 256 1088 208
WIRE 160 272 160 208
WIRE 272 272 160 272
WIRE 384 272 384 208
WIRE 384 272 272 272
WIRE 608 272 608 176
WIRE 672 272 608 272
WIRE 784 272 784 176
WIRE 784 272 736 272
WIRE -304 352 -304 304
WIRE 272 352 272 272
WIRE 496 352 496 304
WIRE 32 368 32 304
WIRE 832 384 832 336
WIRE 32 496 32 448
WIRE 272 544 272 432
FLAG 1104 -592 15V
FLAG 1264 -592 -15V
FLAG 1232 -416 0
FLAG 1072 -416 0
FLAG 272 -288 15V
FLAG 272 544 -15V
FLAG -304 352 0
FLAG 496 352 0
FLAG 896 -592 -5V
FLAG 864 -416 0
FLAG 1088 256 0
FLAG 896 -368 5V
FLAG 864 -192 0
FLAG 880 32 0
FLAG 32 496 0
FLAG 832 384 0
FLAG 1376 32 5V
FLAG 1376 96 -5V
FLAG 1280 240 0
FLAG 1808 16 5V
FLAG 1808 80 -5V
FLAG 1712 224 0
FLAG 1536 -160 5V
FLAG 1456 240 0
SYMBOL njf 112 112 R0
SYMATTR InstName J1
SYMATTR Value LSK389B
SYMBOL voltage 1072 -560 R0
WINDOW 123 0 0 Left 0
WINDOW 39 0 0 Left 0
SYMATTR InstName V1
SYMATTR Value 15
SYMBOL voltage 1232 -560 R0
WINDOW 123 0 0 Left 0
WINDOW 39 0 0 Left 0
SYMATTR InstName V2
SYMATTR Value -15
SYMBOL voltage -304 208 M0
WINDOW 123 0 0 Left 0
WINDOW 39 0 0 Left 0
SYMATTR InstName V3
SYMATTR Value SINE(0 0.1m 10Meg)
SYMBOL res 144 -80 R0
SYMATTR InstName R2
SYMATTR Value 2k
SYMBOL njf 432 112 M0
SYMATTR InstName J2
SYMATTR Value LSK389B
SYMBOL res 400 -80 M0
SYMATTR InstName R3
SYMATTR Value 2k
SYMBOL res 768 160 R90
WINDOW 0 0 56 VBottom 2
WINDOW 3 32 56 VTop 2
SYMATTR InstName R4
SYMATTR Value 900
SYMBOL res 480 208 R0
SYMATTR InstName R5
SYMATTR Value 100
SYMBOL voltage 864 -560 R0
WINDOW 123 0 0 Left 0
WINDOW 39 0 0 Left 0
SYMATTR InstName V4
SYMATTR Value -5
SYMBOL cap -32 160 R90
WINDOW 0 0 32 VBottom 2
WINDOW 3 32 32 VTop 2
SYMATTR InstName C1
SYMATTR Value 10µ
SYMBOL res -144 160 R90
WINDOW 0 0 56 VBottom 2
WINDOW 3 32 56 VTop 2
SYMATTR InstName R1
SYMATTR Value 50
SYMBOL res 16 208 R0
SYMATTR InstName R7
SYMATTR Value 100Meg
SYMBOL cap 1024 64 R90
WINDOW 0 0 32 VBottom 2
WINDOW 3 32 32 VTop 2
SYMATTR InstName C2
SYMATTR Value 10µ
SYMBOL res 1072 112 R0
SYMATTR InstName R8
SYMATTR Value 50
SYMBOL voltage 864 -336 R0
WINDOW 123 0 0 Left 0
WINDOW 39 0 0 Left 0
SYMATTR InstName V5
SYMATTR Value 5
SYMBOL voltage 880 -112 R0
WINDOW 123 0 0 Left 0
WINDOW 39 0 0 Left 0
SYMATTR InstName V6
SYMATTR Value 7
SYMBOL voltage 32 352 R0
WINDOW 123 0 0 Left 0
WINDOW 39 0 0 Left 0
SYMATTR InstName V7
SYMATTR Value 0
SYMBOL current 272 352 R0
WINDOW 123 0 0 Left 0
WINDOW 39 0 0 Left 0
SYMATTR InstName I1
SYMATTR Value 10m
SYMBOL OpAmps\\AD8039 752 16 R0
SYMATTR InstName U1
SYMBOL voltage 832 240 R0
WINDOW 123 0 0 Left 0
WINDOW 39 0 0 Left 0
SYMATTR InstName V8
SYMATTR Value -3
SYMBOL cap 736 256 R90
WINDOW 0 0 32 VBottom 2
WINDOW 3 32 32 VTop 2
SYMATTR InstName C3
SYMATTR Value 2p
SYMBOL res 1264 96 R0
SYMATTR InstName R6
SYMATTR Value 10
SYMBOL res 1296 -48 R270
WINDOW 0 32 56 VTop 2
WINDOW 3 0 56 VBottom 2
SYMATTR InstName R9
SYMATTR Value 990
SYMBOL ZZZ\\OpAmp\\AD8009an 1376 64 R0
SYMATTR InstName U2
SYMBOL res 1696 80 R0
SYMATTR InstName R11
SYMATTR Value 100
SYMBOL res 1728 -144 R270
WINDOW 0 32 56 VTop 2
WINDOW 3 0 56 VBottom 2
SYMATTR InstName R12
SYMATTR Value 900
SYMBOL ZZZ\\OpAmp\\AD8009an 1808 48 R0
SYMATTR InstName U3
SYMBOL res 1552 -144 R270
WINDOW 0 32 56 VTop 2
WINDOW 3 0 56 VBottom 2
SYMATTR InstName R13
SYMATTR Value 113k
SYMBOL res 1440 96 R0
SYMATTR InstName R14
SYMATTR Value 50
TEXT -1192 -224 Left 2 !.lib Z:\\home\\ostoja\\Elektronika\\LNWBA\\LSK389B.lib
TEXT -1136 -72 Left 2 !.tran 0 10u 0 1n
TEXT -1192 -200 Left 2 !.lib Z:\\home\\ostoja\\Elektronika\\LNWBA\\lm7171.lib
TEXT -1192 -176 Left 2 !.lib Z:\\home\\ostoja\\Elektronika\\LNWBA\\LM6171A.MOD
TEXT 560 -544 Left 2 !.param Trim = 100
